 PDE 2016  3  2 12 49 46.00  -4.9050   94.2360  12.0 7.9 7.9 nowhere
event name:      174715B_1
time shift:         0.0000
half duration:      3.6000
latitude:          -4.9947
longitude:         94.2281
depth:          23.0000
Mrr:         2.357000e+24
Mtt:        -6.065000e+24
Mpp:         3.709000e+24
Mrt:        -6.235000e+24
Mrp:         6.400000e+24
Mtp:        -3.450000e+25
 PDE 2016  3  2 12 49 46.00  -4.9050   94.2360  12.0 7.9 7.9 nowhere
event name:      174715B_2
time shift:         0.4000
half duration:      3.8000
latitude:          -4.8154
longitude:         94.2439
depth:          23.0000
Mrr:         1.099000e+24
Mtt:         2.803000e+24
Mpp:        -3.902000e+24
Mrt:         3.372000e+24
Mrp:         2.435000e+24
Mtp:         1.585000e+25
 PDE 2016  3  2 12 49 46.00  -4.9050   94.2360  12.0 7.9 7.9 nowhere
event name:      174715B_3
time shift:         0.6000
half duration:      4.0000
latitude:          -4.9050
longitude:         94.2360
depth:          23.0000
Mrr:         1.435000e+24
Mtt:        -9.439000e+24
Mpp:         8.004000e+24
Mrt:        -1.020000e+25
Mrp:         4.457000e+24
Mtp:        -5.359000e+25
 PDE 2016  3  2 12 49 46.00  -4.9050   94.2360  12.0 7.9 7.9 nowhere
event name:      174715B_4
time shift:         1.6000
half duration:      3.2000
latitude:          -4.8146
longitude:         94.2353
depth:          18.0900
Mrr:         2.176000e+24
Mtt:        -8.320000e+24
Mpp:         6.144000e+24
Mrt:        -8.790000e+24
Mrp:         6.176000e+24
Mtp:        -4.728000e+25
 PDE 2016  3  2 12 49 46.00  -4.9050   94.2360  12.0 7.9 7.9 nowhere
event name:      174715B_5
time shift:         1.6000
half duration:      3.6000
latitude:          -4.9939
longitude:         94.2196
depth:          18.0900
Mrr:         1.615000e+25
Mtt:        -1.410000e+25
Mpp:        -2.048000e+24
Mrt:        -1.211000e+25
Mrp:         4.119000e+25
Mtp:        -8.070000e+25
 PDE 2016  3  2 12 49 46.00  -4.9050   94.2360  12.0 7.9 7.9 nowhere
event name:      174715B_6
time shift:         2.2000
half duration:      2.2000
latitude:          -4.9058
longitude:         94.2446
depth:          27.9100
Mrr:         1.169000e+25
Mtt:        -7.722000e+24
Mpp:        -3.964000e+24
Mrt:        -5.992000e+24
Mrp:         2.956000e+25
Mtp:        -4.431000e+25
 PDE 2016  3  2 12 49 46.00  -4.9050   94.2360  12.0 7.9 7.9 nowhere
event name:      174715B_7
time shift:         2.4000
half duration:      1.8000
latitude:          -4.9043
longitude:         94.2274
depth:          18.0900
Mrr:         8.738000e+24
Mtt:        -1.177000e+25
Mpp:         3.037000e+24
Mrt:        -1.117000e+25
Mrp:         2.269000e+25
Mtp:        -6.716000e+25
 PDE 2016  3  2 12 49 46.00  -4.9050   94.2360  12.0 7.9 7.9 nowhere
event name:      174715B_8
time shift:         2.4000
half duration:      2.8000
latitude:          -4.9931
longitude:         94.2110
depth:          13.1800
Mrr:         2.498000e+25
Mtt:        -3.869000e+25
Mpp:         1.371000e+25
Mrt:        -3.754000e+25
Mrp:         6.535000e+25
Mtp:        -2.205000e+26
 PDE 2016  3  2 12 49 46.00  -4.9050   94.2360  12.0 7.9 7.9 nowhere
event name:      174715B_9
time shift:         2.8000
half duration:      3.6000
latitude:          -4.7257
longitude:         94.2518
depth:          23.0000
Mrr:         4.274000e+24
Mtt:        -3.437000e+24
Mpp:        -8.375000e+23
Mrt:        -2.874000e+24
Mrp:         1.087000e+25
Mtp:        -1.968000e+25
 PDE 2016  3  2 12 49 46.00  -4.9050   94.2360  12.0 7.9 7.9 nowhere
event name:      174715B_10
time shift:         3.0000
half duration:      3.0000
latitude:          -4.8131
longitude:         94.2181
depth:           8.2760
Mrr:         4.694000e+24
Mtt:         5.344000e+25
Mpp:        -5.814000e+25
Mrt:         6.065000e+25
Mrp:         6.357000e+24
Mtp:         3.029000e+26
 PDE 2016  3  2 12 49 46.00  -4.9050   94.2360  12.0 7.9 7.9 nowhere
event name:      174715B_11
time shift:         4.2000
half duration:      2.6000
latitude:          -4.9924
longitude:         94.2024
depth:           8.2760
Mrr:         4.116000e+24
Mtt:         4.696000e+25
Mpp:        -5.108000e+25
Mrt:         5.329000e+25
Mrp:         5.564000e+24
Mtp:         2.661000e+26
 PDE 2016  3  2 12 49 46.00  -4.9050   94.2360  12.0 7.9 7.9 nowhere
event name:      174715B_12
time shift:         5.8000
half duration:      3.4000
latitude:          -4.6345
longitude:         94.2424
depth:          13.1800
Mrr:         2.835000e+25
Mtt:        -3.434000e+25
Mpp:         5.992000e+24
Mrt:        -3.194000e+25
Mrp:         7.324000e+25
Mtp:        -1.960000e+26
 PDE 2016  3  2 12 49 46.00  -4.9050   94.2360  12.0 7.9 7.9 nowhere
event name:      174715B_13
time shift:         6.4000
half duration:      3.6000
latitude:          -4.6361
longitude:         94.2596
depth:          23.0000
Mrr:         2.148000e+25
Mtt:        -1.456000e+25
Mpp:        -6.918000e+24
Mrt:        -1.142000e+25
Mrp:         5.437000e+25
Mtp:        -8.354000e+25
 PDE 2016  3  2 12 49 46.00  -4.9050   94.2360  12.0 7.9 7.9 nowhere
event name:      174715B_14
time shift:         6.6000
half duration:      2.8000
latitude:          -4.8139
longitude:         94.2267
depth:          13.1800
Mrr:         3.912000e+25
Mtt:        -3.564000e+25
Mpp:        -3.479000e+24
Mrt:        -3.097000e+25
Mrp:         9.990000e+25
Mtp:        -2.038000e+26
 PDE 2016  3  2 12 49 46.00  -4.9050   94.2360  12.0 7.9 7.9 nowhere
event name:      174715B_15
time shift:         7.4000
half duration:      3.0000
latitude:          -4.9035
longitude:         94.2188
depth:          13.1800
Mrr:         3.145000e+25
Mtt:        -2.950000e+25
Mpp:        -1.957000e+24
Mrt:        -2.584000e+25
Mrp:         8.041000e+25
Mtp:        -1.687000e+26
 PDE 2016  3  2 12 49 46.00  -4.9050   94.2360  12.0 7.9 7.9 nowhere
event name:      174715B_16
time shift:         7.6000
half duration:      5.0000
latitude:          -4.7249
longitude:         94.2432
depth:          18.0900
Mrr:         1.596000e+25
Mtt:        -1.174000e+25
Mpp:        -4.224000e+24
Mrt:        -9.513000e+24
Mrp:         4.049000e+25
Mtp:        -6.728000e+25
 PDE 2016  3  2 12 49 46.00  -4.9050   94.2360  12.0 7.9 7.9 nowhere
event name:      174715B_17
time shift:         7.8000
half duration:      3.6000
latitude:          -5.0813
longitude:         94.1859
depth:           3.3670
Mrr:         3.596000e+24
Mtt:         5.670000e+24
Mpp:        -9.266000e+24
Mrt:         7.129000e+24
Mrp:         8.310000e+24
Mtp:         3.200000e+25
 PDE 2016  3  2 12 49 46.00  -4.9050   94.2360  12.0 7.9 7.9 nowhere
event name:      174715B_18
time shift:         7.8000
half duration:      4.0000
latitude:          -4.6353
longitude:         94.2510
depth:          18.0900
Mrr:         1.355000e+25
Mtt:        -9.321000e+24
Mpp:        -4.225000e+24
Mrt:        -7.358000e+24
Mrp:         3.430000e+25
Mtp:        -5.346000e+25
 PDE 2016  3  2 12 49 46.00  -4.9050   94.2360  12.0 7.9 7.9 nowhere
event name:      174715B_19
time shift:         8.0000
half duration:      2.8000
latitude:          -4.9917
longitude:         94.1938
depth:           3.3670
Mrr:         3.283000e+24
Mtt:         6.785000e+24
Mpp:        -1.007000e+25
Mrt:         8.302000e+24
Mrp:         7.430000e+24
Mtp:         3.834000e+25
 PDE 2016  3  2 12 49 46.00  -4.9050   94.2360  12.0 7.9 7.9 nowhere
event name:      174715B_20
time shift:         8.0000
half duration:      3.2000
latitude:          -4.9020
longitude:         94.2017
depth:           3.3670
Mrr:         3.066000e+24
Mtt:         7.800000e+24
Mpp:        -1.087000e+25
Mrt:         9.385000e+24
Mrp:         6.796000e+24
Mtp:         4.410000e+25
 PDE 2016  3  2 12 49 46.00  -4.9050   94.2360  12.0 7.9 7.9 nowhere
event name:      174715B_21
time shift:         8.0000
half duration:      3.8000
latitude:          -4.8124
longitude:         94.2095
depth:           3.3670
Mrr:         2.879000e+24
Mtt:         8.035000e+24
Mpp:        -1.091000e+25
Mrt:         9.606000e+24
Mrp:         6.314000e+24
Mtp:         4.544000e+25
 PDE 2016  3  2 12 49 46.00  -4.9050   94.2360  12.0 7.9 7.9 nowhere
event name:      174715B_22
time shift:         8.4000
half duration:      3.6000
latitude:          -5.1710
longitude:         94.1781
depth:           3.3670
Mrr:         2.253000e+24
Mtt:         3.919000e+24
Mpp:        -6.171000e+24
Mrt:         4.875000e+24
Mrp:         5.171000e+24
Mtp:         2.213000e+25
 PDE 2016  3  2 12 49 46.00  -4.9050   94.2360  12.0 7.9 7.9 nowhere
event name:      174715B_23
time shift:         8.8000
half duration:      3.2000
latitude:          -4.7227
longitude:         94.2174
depth:           3.3670
Mrr:         1.586000e+24
Mtt:         8.205000e+24
Mpp:        -9.791000e+24
Mrt:         9.506000e+24
Mrp:         3.108000e+24
Mtp:         4.647000e+25
 PDE 2016  3  2 12 49 46.00  -4.9050   94.2360  12.0 7.9 7.9 nowhere
event name:      174715B_24
time shift:         8.8000
half duration:      3.6000
latitude:          -4.7242
longitude:         94.2346
depth:          13.1800
Mrr:         3.961000e+25
Mtt:        -3.868000e+25
Mpp:        -9.295000e+23
Mrt:        -3.425000e+25
Mrp:         1.014000e+26
Mtp:        -2.211000e+26
 PDE 2016  3  2 12 49 46.00  -4.9050   94.2360  12.0 7.9 7.9 nowhere
event name:      174715B_25
time shift:         9.2000
half duration:      3.0000
latitude:          -4.6330
longitude:         94.2253
depth:           3.3670
Mrr:         1.652000e+24
Mtt:         7.666000e+24
Mpp:        -9.318000e+24
Mrt:         8.919000e+24
Mrp:         3.324000e+24
Mtp:         4.340000e+25
 PDE 2016  3  2 12 49 46.00  -4.9050   94.2360  12.0 7.9 7.9 nowhere
event name:      174715B_26
time shift:         9.8000
half duration:      3.2000
latitude:          -4.5434
longitude:         94.2331
depth:           3.3670
Mrr:         6.536000e+23
Mtt:         6.392000e+24
Mpp:        -7.046000e+24
Mrt:         7.275000e+24
Mrp:         9.875000e+23
Mtp:         3.622000e+25
 PDE 2016  3  2 12 49 46.00  -4.9050   94.2360  12.0 7.9 7.9 nowhere
event name:      174715B_27
time shift:         9.8000
half duration:      3.4000
latitude:          -4.5449
longitude:         94.2503
depth:          13.1800
Mrr:         2.802000e+25
Mtt:        -2.300000e+25
Mpp:        -5.013000e+24
Mrt:        -1.937000e+25
Mrp:         7.131000e+25
Mtp:        -1.317000e+26
 PDE 2016  3  2 12 49 46.00  -4.9050   94.2360  12.0 7.9 7.9 nowhere
event name:      174715B_28
time shift:        10.0000
half duration:      3.6000
latitude:          -4.5464
longitude:         94.2675
depth:          23.0000
Mrr:         1.739000e+25
Mtt:        -1.145000e+25
Mpp:        -5.943000e+24
Mrt:        -8.868000e+24
Mrp:         4.399000e+25
Mtp:        -6.569000e+25
 PDE 2016  3  2 12 49 46.00  -4.9050   94.2360  12.0 7.9 7.9 nowhere
event name:      174715B_29
time shift:        10.8000
half duration:      3.4000
latitude:          -4.5442
longitude:         94.2417
depth:           8.2760
Mrr:         1.099000e+25
Mtt:        -4.160000e+25
Mpp:         3.061000e+25
Mrt:        -4.393000e+25
Mrp:         3.115000e+25
Mtp:        -2.364000e+26
 PDE 2016  3  2 12 49 46.00  -4.9050   94.2360  12.0 7.9 7.9 nowhere
event name:      174715B_30
time shift:        11.4000
half duration:      5.0000
latitude:          -4.5457
longitude:         94.2589
depth:          18.0900
Mrr:         1.086000e+25
Mtt:        -7.149000e+24
Mpp:        -3.707000e+24
Mrt:        -5.538000e+24
Mrp:         2.746000e+25
Mtp:        -4.102000e+25
 PDE 2016  3  2 12 49 46.00  -4.9050   94.2360  12.0 7.9 7.9 nowhere
event name:      174715B_31
time shift:        12.0000
half duration:      3.4000
latitude:          -4.4538
longitude:         94.2410
depth:           3.3670
Mrr:         5.323000e+23
Mtt:         3.277000e+24
Mpp:        -3.809000e+24
Mrt:         3.774000e+24
Mrp:         9.925000e+23
Mtp:         1.856000e+25
 PDE 2016  3  2 12 49 46.00  -4.9050   94.2360  12.0 7.9 7.9 nowhere
event name:      174715B_32
time shift:        12.0000
half duration:      5.8000
latitude:          -4.6338
longitude:         94.2339
depth:           8.2760
Mrr:         7.003000e+24
Mtt:        -4.973000e+25
Mpp:         4.272000e+25
Mrt:        -5.388000e+25
Mrp:         2.211000e+25
Mtp:        -2.823000e+26
 PDE 2016  3  2 12 49 46.00  -4.9050   94.2360  12.0 7.9 7.9 nowhere
event name:      174715B_33
time shift:        12.2000
half duration:      3.4000
latitude:          -4.4545
longitude:         94.2496
depth:           8.2760
Mrr:         3.936000e+24
Mtt:        -2.161000e+25
Mpp:         1.767000e+25
Mrt:        -2.321000e+25
Mrp:         1.181000e+25
Mtp:        -1.227000e+26
 PDE 2016  3  2 12 49 46.00  -4.9050   94.2360  12.0 7.9 7.9 nowhere
event name:      174715B_34
time shift:        12.2000
half duration:      4.6000
latitude:          -5.0820
longitude:         94.1945
depth:           8.2760
Mrr:         1.658000e+25
Mtt:         3.760000e+25
Mpp:        -5.418000e+25
Mrt:         4.565000e+25
Mrp:         3.719000e+25
Mtp:         2.125000e+26
 PDE 2016  3  2 12 49 46.00  -4.9050   94.2360  12.0 7.9 7.9 nowhere
event name:      174715B_35
time shift:        12.4000
half duration:      3.4000
latitude:          -4.4553
longitude:         94.2582
depth:          13.1800
Mrr:         4.172000e+24
Mtt:        -6.550000e+24
Mpp:         2.377000e+24
Mrt:        -6.368000e+24
Mrp:         1.092000e+25
Mtp:        -3.733000e+25
 PDE 2016  3  2 12 49 46.00  -4.9050   94.2360  12.0 7.9 7.9 nowhere
event name:      174715B_36
time shift:        12.4000
half duration:      6.2000
latitude:          -5.0828
longitude:         94.2031
depth:          13.1800
Mrr:         8.142000e+24
Mtt:         2.505000e+25
Mpp:        -3.319000e+25
Mrt:         2.976000e+25
Mrp:         1.763000e+25
Mtp:         1.417000e+26
 PDE 2016  3  2 12 49 46.00  -4.9050   94.2360  12.0 7.9 7.9 nowhere
event name:      174715B_37
time shift:        12.6000
half duration:      3.4000
latitude:          -5.1754
longitude:         94.2296
depth:          32.8200
Mrr:         6.136000e+24
Mtt:         9.170000e+24
Mpp:        -1.531000e+25
Mrt:         1.160000e+25
Mrp:         1.423000e+25
Mtp:         5.174000e+25
 PDE 2016  3  2 12 49 46.00  -4.9050   94.2360  12.0 7.9 7.9 nowhere
event name:      174715B_38
time shift:        12.6000
half duration:      3.4000
latitude:          -5.1762
longitude:         94.2381
depth:          37.7200
Mrr:         1.416000e+24
Mtt:         1.968000e+24
Mpp:        -3.385000e+24
Mrt:         2.512000e+24
Mrp:         3.299000e+24
Mtp:         1.110000e+25
 PDE 2016  3  2 12 49 46.00  -4.9050   94.2360  12.0 7.9 7.9 nowhere
event name:      174715B_39
time shift:        12.6000
half duration:      4.2000
latitude:          -4.9028
longitude:         94.2102
depth:           8.2760
Mrr:         1.492000e+24
Mtt:         5.156000e+25
Mpp:        -5.305000e+25
Mrt:         5.783000e+25
Mrp:        -1.352000e+24
Mtp:         2.923000e+26
 PDE 2016  3  2 12 49 46.00  -4.9050   94.2360  12.0 7.9 7.9 nowhere
event name:      174715B_40
time shift:        12.6000
half duration:      4.2000
latitude:          -4.6368
longitude:         94.2682
depth:          27.9100
Mrr:         2.813000e+24
Mtt:        -3.659000e+24
Mpp:         8.465000e+23
Mrt:        -3.450000e+24
Mrp:         7.291000e+24
Mtp:        -2.088000e+25
 PDE 2016  3  2 12 49 46.00  -4.9050   94.2360  12.0 7.9 7.9 nowhere
event name:      174715B_41
time shift:        13.0000
half duration:      3.6000
latitude:          -5.0858
longitude:         94.2374
depth:          32.8200
Mrr:         7.717000e+24
Mtt:         9.325000e+24
Mpp:        -1.704000e+25
Mrt:         1.213000e+25
Mrp:         1.811000e+25
Mtp:         5.255000e+25
 PDE 2016  3  2 12 49 46.00  -4.9050   94.2360  12.0 7.9 7.9 nowhere
event name:      174715B_42
time shift:        13.0000
half duration:      3.8000
latitude:          -5.0865
longitude:         94.2460
depth:          37.7200
Mrr:         2.099000e+24
Mtt:         2.176000e+24
Mpp:        -4.275000e+24
Mrt:         2.897000e+24
Mrp:         4.961000e+24
Mtp:         1.225000e+25
 PDE 2016  3  2 12 49 46.00  -4.9050   94.2360  12.0 7.9 7.9 nowhere
event name:      174715B_43
time shift:        13.0000
half duration:      4.0000
latitude:          -5.1747
longitude:         94.2210
depth:          27.9100
Mrr:         5.127000e+24
Mtt:         6.239000e+24
Mpp:        -1.137000e+25
Mrt:         8.107000e+24
Mrp:         1.203000e+25
Mtp:         3.516000e+25
 PDE 2016  3  2 12 49 46.00  -4.9050   94.2360  12.0 7.9 7.9 nowhere
event name:      174715B_44
time shift:        13.0000
half duration:      4.2000
latitude:          -4.7234
longitude:         94.2260
depth:           8.2760
Mrr:         4.829000e+24
Mtt:        -5.434000e+25
Mpp:         4.951000e+25
Mrt:        -5.951000e+25
Mrp:         1.720000e+25
Mtp:        -3.084000e+26
 PDE 2016  3  2 12 49 46.00  -4.9050   94.2360  12.0 7.9 7.9 nowhere
event name:      174715B_45
time shift:        13.2000
half duration:      3.6000
latitude:          -5.1724
longitude:         94.1952
depth:          13.1800
Mrr:         7.784000e+24
Mtt:         8.661000e+24
Mpp:        -1.645000e+25
Mrt:         1.140000e+25
Mrp:         1.834000e+25
Mtp:         4.878000e+25
 PDE 2016  3  2 12 49 46.00  -4.9050   94.2360  12.0 7.9 7.9 nowhere
event name:      174715B_46
time shift:        13.4000
half duration:      3.2000
latitude:          -4.5494
longitude:         94.3018
depth:          42.6300
Mrr:         7.052000e+24
Mtt:        -5.064000e+24
Mpp:        -1.989000e+24
Mrt:        -4.066000e+24
Mrp:         1.788000e+25
Mtp:        -2.903000e+25
 PDE 2016  3  2 12 49 46.00  -4.9050   94.2360  12.0 7.9 7.9 nowhere
event name:      174715B_47
time shift:        13.6000
half duration:      3.0000
latitude:          -4.7279
longitude:         94.2775
depth:          37.7200
Mrr:         6.725000e+24
Mtt:         1.355000e+25
Mpp:        -2.028000e+25
Mrt:         1.662000e+25
Mrp:         1.525000e+25
Mtp:         7.657000e+25
 PDE 2016  3  2 12 49 46.00  -4.9050   94.2360  12.0 7.9 7.9 nowhere
event name:      174715B_48
time shift:        13.6000
half duration:      3.2000
latitude:          -4.6390
longitude:         94.2939
depth:          42.6300
Mrr:         1.753000e+24
Mtt:        -2.342000e+24
Mpp:         5.889000e+23
Mrt:        -2.219000e+24
Mrp:         4.550000e+24
Mtp:        -1.336000e+25
 PDE 2016  3  2 12 49 46.00  -4.9050   94.2360  12.0 7.9 7.9 nowhere
event name:      174715B_49
time shift:        13.6000
half duration:      4.0000
latitude:          -5.1717
longitude:         94.1866
depth:           8.2760
Mrr:         9.908000e+24
Mtt:         2.694000e+25
Mpp:        -3.684000e+25
Mrt:         3.226000e+25
Mrp:         2.179000e+25
Mtp:         1.523000e+26
 PDE 2016  3  2 12 49 46.00  -4.9050   94.2360  12.0 7.9 7.9 nowhere
event name:      174715B_50
time shift:        13.6000
half duration:      4.0000
latitude:          -4.7272
longitude:         94.2689
depth:          32.8200
Mrr:         5.190000e+24
Mtt:         1.219000e+25
Mpp:        -1.738000e+25
Mrt:         1.476000e+25
Mrp:         1.160000e+25
Mtp:         6.891000e+25
 PDE 2016  3  2 12 49 46.00  -4.9050   94.2360  12.0 7.9 7.9 nowhere
event name:      174715B_51
time shift:        13.6000
half duration:      4.6000
latitude:          -4.9962
longitude:         94.2452
depth:          32.8200
Mrr:         2.214000e+23
Mtt:         1.956000e+24
Mpp:        -2.178000e+24
Mrt:         2.231000e+24
Mrp:         3.548000e+23
Mtp:         1.109000e+25
 PDE 2016  3  2 12 49 46.00  -4.9050   94.2360  12.0 7.9 7.9 nowhere
event name:      174715B_52
time shift:        13.6000
half duration:      5.6000
latitude:          -5.0850
longitude:         94.2288
depth:          27.9100
Mrr:         1.547000e+24
Mtt:         3.940000e+24
Mpp:        -5.487000e+24
Mrt:         4.740000e+24
Mrp:         3.430000e+24
Mtp:         2.228000e+25
 PDE 2016  3  2 12 49 46.00  -4.9050   94.2360  12.0 7.9 7.9 nowhere
event name:      174715B_53
time shift:        13.8000
half duration:      3.4000
latitude:          -4.9969
longitude:         94.2539
depth:          37.7200
Mrr:         2.389000e+24
Mtt:         2.545000e+24
Mpp:        -4.934000e+24
Mrt:         3.374000e+24
Mrp:         5.639000e+24
Mtp:         1.433000e+25
 PDE 2016  3  2 12 49 46.00  -4.9050   94.2360  12.0 7.9 7.9 nowhere
event name:      174715B_54
time shift:        13.8000
half duration:      5.6000
latitude:          -5.1769
longitude:         94.2467
depth:          42.6300
Mrr:         1.381000e+24
Mtt:         1.877000e+24
Mpp:        -3.258000e+24
Mrt:         2.403000e+24
Mrp:         3.221000e+24
Mtp:         1.059000e+25
 PDE 2016  3  2 12 49 46.00  -4.9050   94.2360  12.0 7.9 7.9 nowhere
event name:      174715B_55
time shift:        14.6000
half duration:      2.6000
latitude:          -4.8176
longitude:         94.2696
depth:          37.7200
Mrr:         2.885000e+24
Mtt:         4.485000e+24
Mpp:        -7.370000e+24
Mrt:         5.648000e+24
Mrp:         6.674000e+24
Mtp:         2.531000e+25
 PDE 2016  3  2 12 49 46.00  -4.9050   94.2360  12.0 7.9 7.9 nowhere
event name:      174715B_56
time shift:        15.0000
half duration:      4.8000
latitude:          -4.6376
longitude:         94.2768
depth:          32.8200
Mrr:         1.957000e+24
Mtt:         2.943000e+24
Mpp:        -4.899000e+24
Mrt:         3.720000e+24
Mrp:         4.536000e+24
Mtp:         1.660000e+25
 PDE 2016  3  2 12 49 46.00  -4.9050   94.2360  12.0 7.9 7.9 nowhere
event name:      174715B_57
time shift:        15.2000
half duration:      3.2000
latitude:          -4.6383
longitude:         94.2854
depth:          37.7200
Mrr:         1.833000e+24
Mtt:         2.151000e+24
Mpp:        -3.985000e+24
Mrt:         2.810000e+24
Mrp:         4.309000e+24
Mtp:         1.212000e+25
 PDE 2016  3  2 12 49 46.00  -4.9050   94.2360  12.0 7.9 7.9 nowhere
event name:      174715B_58
time shift:        16.0000
half duration:      3.4000
latitude:          -5.2614
longitude:         94.1787
depth:           8.2760
Mrr:         2.838000e+23
Mtt:         1.501000e+25
Mpp:        -1.530000e+25
Mrt:         1.680000e+25
Mrp:        -7.652000e+23
Mtp:         8.513000e+25
 PDE 2016  3  2 12 49 46.00  -4.9050   94.2360  12.0 7.9 7.9 nowhere
event name:      174715B_59
time shift:        16.0000
half duration:      3.6000
latitude:          -5.2606
longitude:         94.1702
depth:           3.3670
Mrr:         1.034000e+24
Mtt:         2.113000e+24
Mpp:        -3.147000e+24
Mrt:         2.589000e+24
Mrp:         2.342000e+24
Mtp:         1.194000e+25
 PDE 2016  3  2 12 49 46.00  -4.9050   94.2360  12.0 7.9 7.9 nowhere
event name:      174715B_60
time shift:        20.8000
half duration:      3.4000
latitude:          -4.3701
longitude:         94.3176
depth:          42.6300
Mrr:         1.732000e+25
Mtt:         1.680000e+25
Mpp:        -3.412000e+25
Mrt:         2.262000e+25
Mrp:         4.105000e+25
Mtp:         9.453000e+25
 PDE 2016  3  2 12 49 46.00  -4.9050   94.2360  12.0 7.9 7.9 nowhere
event name:      174715B_61
time shift:        21.0000
half duration:      5.2000
latitude:          -4.4597
longitude:         94.3097
depth:          42.6300
Mrr:         5.375000e+24
Mtt:         5.228000e+24
Mpp:        -1.060000e+25
Mrt:         7.035000e+24
Mrp:         1.274000e+25
Mtp:         2.942000e+25
 PDE 2016  3  2 12 49 46.00  -4.9050   94.2360  12.0 7.9 7.9 nowhere
event name:      174715B_62
time shift:        24.0000
half duration:      5.8000
latitude:          -4.3693
longitude:         94.3090
depth:          37.7200
Mrr:         5.519000e+24
Mtt:         5.349000e+24
Mpp:        -1.087000e+25
Mrt:         7.202000e+24
Mrp:         1.308000e+25
Mtp:         3.009000e+25
 PDE 2016  3  2 12 49 46.00  -4.9050   94.2360  12.0 7.9 7.9 nowhere
event name:      174715B_63
time shift:        25.2000
half duration:      3.6000
latitude:          -4.2804
longitude:         94.3255
depth:          42.6300
Mrr:         6.944000e+24
Mtt:         6.952000e+24
Mpp:        -1.390000e+25
Mrt:         9.309000e+24
Mrp:         1.644000e+25
Mtp:         3.912000e+25
 PDE 2016  3  2 12 49 46.00  -4.9050   94.2360  12.0 7.9 7.9 nowhere
event name:      174715B_64
time shift:        43.2000
half duration:      4.0000
latitude:          -5.5355
longitude:         94.2152
depth:          42.6300
Mrr:         6.406000e+24
Mtt:        -4.221000e+24
Mpp:        -2.184000e+24
Mrt:        -3.271000e+24
Mrp:         1.620000e+25
Mtp:        -2.422000e+25
