PDE 2022  1 7  17 45 30.125  37.811 101.275  10.0  6.6 6.6 Jinchang China
event name:      202201071745
time shift:       0.0000 
half duration:    1.0000 
latitude:        37.7840 
longitude:      101.2660 
depth:            6.0000 
Mrr:        1.779912e+24 
Mtt:       -1.788988e+24 
Mpp:        9.075991e+21 
Mrt:       -2.291363e+24 
Mrp:       -1.397517e+23 
Mtp:        2.747157e+23 
PDE 2022  1 7  17 45 30.125  37.811 101.275  10.0  6.6 6.6 Jinchang China
event name:      202201071745
time shift:       0.7036 
half duration:    3.0000 
latitude:        37.7822 
longitude:      101.2652 
depth:            4.0408 
Mrr:        3.068740e+24 
Mtt:       -3.083154e+24 
Mpp:        1.441415e+22 
Mrt:       -3.948739e+24 
Mrp:       -2.353961e+23 
Mtp:        4.753480e+23 
PDE 2022  1 7  17 45 30.125  37.811 101.275  10.0  6.6 6.6 Jinchang China
event name:      202201071745
time shift:       0.7036 
half duration:    1.0000 
latitude:        37.7858 
longitude:      101.2668 
depth:            7.9592 
Mrr:        2.410141e+23 
Mtt:       -2.513264e+23 
Mpp:        1.031234e+22 
Mrt:       -3.234586e+23 
Mrp:       -5.978058e+22 
Mtp:        2.459664e+22 
PDE 2022  1 7  17 45 30.125  37.811 101.275  10.0  6.6 6.6 Jinchang China
event name:      202201071745
time shift:       0.7143 
half duration:    1.0000 
latitude:        37.7899 
longitude:      101.2445 
depth:            6.0000 
Mrr:        1.953993e+24 
Mtt:       -1.954627e+24 
Mpp:        6.341869e+20 
Mrt:       -2.501918e+24 
Mrp:       -1.114559e+23 
Mtp:        3.145271e+23 
PDE 2022  1 7  17 45 30.125  37.811 101.275  10.0  6.6 6.6 Jinchang China
event name:      202201071745
time shift:       0.9143 
half duration:    1.0000 
latitude:        37.7781 
longitude:      101.2875 
depth:            6.0000 
Mrr:        1.403949e+24 
Mtt:       -1.405609e+24 
Mpp:        1.660051e+21 
Mrt:       -1.799383e+24 
Mrp:       -8.549869e+22 
Mtp:        2.243176e+23 
PDE 2022  1 7  17 45 30.125  37.811 101.275  10.0  6.6 6.6 Jinchang China
event name:      202201071745
time shift:       1.0026 
half duration:    1.0000 
latitude:        37.7916 
longitude:      101.2452 
depth:            7.9592 
Mrr:        3.107158e+23 
Mtt:       -3.224996e+23 
Mpp:        1.178378e+22 
Mrt:       -4.148094e+23 
Mrp:       -7.027312e+22 
Mtp:        3.380625e+22 
PDE 2022  1 7  17 45 30.125  37.811 101.275  10.0  6.6 6.6 Jinchang China
event name:      202201071745
time shift:       1.0026 
half duration:    1.0000 
latitude:        37.7881 
longitude:      101.2437 
depth:            4.0408 
Mrr:        3.418588e+24 
Mtt:       -3.455839e+24 
Mpp:        3.725066e+22 
Mrt:       -4.429686e+24 
Mrp:       -3.575595e+23 
Mtp:        5.001366e+23 
PDE 2022  1 7  17 45 30.125  37.811 101.275  10.0  6.6 6.6 Jinchang China
event name:      202201071745
time shift:       1.2026 
half duration:    3.0000 
latitude:        37.7764 
longitude:      101.2868 
depth:            4.0408 
Mrr:        2.531246e+24 
Mtt:       -2.533706e+24 
Mpp:        2.459595e+21 
Mrt:       -3.243419e+24 
Mrp:       -1.517504e+23 
Mtp:        4.051728e+23 
PDE 2022  1 7  17 45 30.125  37.811 101.275  10.0  6.6 6.6 Jinchang China
event name:      202201071745
time shift:       1.2026 
half duration:    3.0000 
latitude:        37.7799 
longitude:      101.2883 
depth:            7.9592 
Mrr:       -6.224227e+20 
Mtt:       -1.996666e+20 
Mpp:        8.220893e+20 
Mrt:       -3.970956e+20 
Mrp:       -3.663167e+21 
Mtp:       -1.241012e+21 
PDE 2022  1 7  17 45 30.125  37.811 101.275  10.0  6.6 6.6 Jinchang China
event name:      202201071745
time shift:       1.4286 
half duration:    3.0000 
latitude:        37.7957 
longitude:      101.2229 
depth:            6.0000 
Mrr:        1.825686e+24 
Mtt:       -1.826704e+24 
Mpp:        1.018224e+21 
Mrt:       -2.338250e+24 
Mrp:       -1.060520e+23 
Mtp:        2.932834e+23 
PDE 2022  1 7  17 45 30.125  37.811 101.275  10.0  6.6 6.6 Jinchang China
event name:      202201071745
time shift:       1.5781 
half duration:    1.0000 
latitude:        37.7934 
longitude:      101.2460 
depth:            9.9184 
Mrr:       -5.445454e+21 
Mtt:        2.448220e+21 
Mpp:        2.997234e+21 
Mrt:        2.617564e+21 
Mrp:       -1.317891e+22 
Mtp:       -5.037261e+21 
PDE 2022  1 7  17 45 30.125  37.811 101.275  10.0  6.6 6.6 Jinchang China
event name:      202201071745
time shift:       1.5924 
half duration:    3.0000 
latitude:        37.7940 
longitude:      101.2222 
depth:            4.0408 
Mrr:        3.545276e+24 
Mtt:       -3.551448e+24 
Mpp:        6.171945e+21 
Mrt:       -4.546709e+24 
Mrp:       -2.248086e+23 
Mtp:        5.637038e+23 
PDE 2022  1 7  17 45 30.125  37.811 101.275  10.0  6.6 6.6 Jinchang China
event name:      202201071745
time shift:       1.5924 
half duration:    2.0000 
latitude:        37.7975 
longitude:      101.2237 
depth:            7.9592 
Mrr:        3.304434e+23 
Mtt:       -3.481493e+23 
Mpp:        1.770597e+22 
Mrt:       -4.486591e+23 
Mrp:       -9.800765e+22 
Mtp:        2.877431e+22 
PDE 2022  1 7  17 45 30.125  37.811 101.275  10.0  6.6 6.6 Jinchang China
event name:      202201071745
time shift:       1.6071 
half duration:    3.0000 
latitude:        37.7805 
longitude:      101.2645 
depth:            2.0816 
Mrr:        1.959688e+24 
Mtt:       -2.341196e+24 
Mpp:        3.815079e+23 
Mrt:       -3.062275e+24 
Mrp:       -1.824944e+24 
Mtp:       -2.129665e+23 
PDE 2022  1 7  17 45 30.125  37.811 101.275  10.0  6.6 6.6 Jinchang China
event name:      202201071745
time shift:       1.6071 
half duration:    2.0000 
latitude:        37.7875 
longitude:      101.2675 
depth:            9.9184 
Mrr:        1.320628e+20 
Mtt:       -4.962546e+20 
Mpp:        3.641917e+20 
Mrt:       -6.978775e+20 
Mrp:       -1.645476e+21 
Mtp:       -4.839517e+20 
PDE 2022  1 7  17 45 30.125  37.811 101.275  10.0  6.6 6.6 Jinchang China
event name:      202201071745
time shift:       1.7781 
half duration:    3.0000 
latitude:        37.7864 
longitude:      101.2429 
depth:            2.0816 
Mrr:        2.306483e+24 
Mtt:       -2.747529e+24 
Mpp:        4.410456e+23 
Mrt:       -3.592609e+24 
Mrp:       -2.112020e+24 
Mtp:       -2.395888e+23 
PDE 2022  1 7  17 45 30.125  37.811 101.275  10.0  6.6 6.6 Jinchang China
event name:      202201071745
time shift:       1.9781 
half duration:    3.0000 
latitude:        37.7746 
longitude:      101.2860 
depth:            2.0816 
Mrr:        1.550063e+24 
Mtt:       -1.846656e+24 
Mpp:        2.965921e+23 
Mrt:       -2.414674e+24 
Mrp:       -1.420226e+24 
Mtp:       -1.612771e+23 
PDE 2022  1 7  17 45 30.125  37.811 101.275  10.0  6.6 6.6 Jinchang China
event name:      202201071745
time shift:       1.9781 
half duration:    1.0000 
latitude:        37.7816 
longitude:      101.2891 
depth:            9.9184 
Mrr:       -4.085073e+22 
Mtt:        2.505058e+22 
Mpp:        1.580015e+22 
Mrt:        2.934307e+22 
Mrp:       -6.879863e+22 
Mtp:       -2.851464e+22 
PDE 2022  1 7  17 45 30.125  37.811 101.275  10.0  6.6 6.6 Jinchang China
event name:      202201071745
time shift:       1.9924 
half duration:    3.0000 
latitude:        37.7705 
longitude:      101.3083 
depth:            4.0408 
Mrr:        2.106257e+24 
Mtt:       -2.106406e+24 
Mpp:        1.489664e+20 
Mrt:       -2.696102e+24 
Mrp:       -1.177362e+23 
Mtp:        3.397782e+23 
PDE 2022  1 7  17 45 30.125  37.811 101.275  10.0  6.6 6.6 Jinchang China
event name:      202201071745
time shift:       2.0052 
half duration:    2.0000 
latitude:        37.7992 
longitude:      101.2245 
depth:            9.9184 
Mrr:       -1.521734e+22 
Mtt:        2.827364e+20 
Mpp:        1.493461e+22 
Mrt:       -2.209313e+21 
Mrp:       -6.633015e+22 
Mtp:       -2.317617e+22 
PDE 2022  1 7  17 45 30.125  37.811 101.275  10.0  6.6 6.6 Jinchang China
event name:      202201071745
time shift:       2.0286 
half duration:    1.0000 
latitude:        37.7723 
longitude:      101.3091 
depth:            6.0000 
Mrr:        9.320155e+23 
Mtt:       -9.324577e+23 
Mpp:        4.422148e+20 
Mrt:       -1.193568e+24 
Mrp:       -5.379070e+22 
Mtp:        1.498293e+23 
PDE 2022  1 7  17 45 30.125  37.811 101.275  10.0  6.6 6.6 Jinchang China
event name:      202201071745
time shift:       2.1429 
half duration:    3.0000 
latitude:        37.8016 
longitude:      101.2014 
depth:            6.0000 
Mrr:        1.208548e+24 
Mtt:       -1.209904e+24 
Mpp:        1.355976e+21 
Mrt:       -1.548839e+24 
Mrp:       -7.327051e+22 
Mtp:        1.931984e+23 
PDE 2022  1 7  17 45 30.125  37.811 101.275  10.0  6.6 6.6 Jinchang China
event name:      202201071745
time shift:       2.1924 
half duration:    2.0000 
latitude:        37.7740 
longitude:      101.3098 
depth:            7.9592 
Mrr:       -1.603262e+21 
Mtt:       -7.689355e+20 
Mpp:        2.372197e+21 
Mrt:       -1.392599e+21 
Mrp:       -1.058104e+22 
Mtp:       -3.549909e+21 
PDE 2022  1 7  17 45 30.125  37.811 101.275  10.0  6.6 6.6 Jinchang China
event name:      202201071745
time shift:       2.2052 
half duration:    3.0000 
latitude:        37.7922 
longitude:      101.2214 
depth:            2.0816 
Mrr:        3.017786e+24 
Mtt:       -3.193888e+24 
Mpp:        1.761023e+23 
Mrt:       -4.118309e+24 
Mrp:       -9.598381e+23 
Mtp:        2.428017e+23 
PDE 2022  1 7  17 45 30.125  37.811 101.275  10.0  6.6 6.6 Jinchang China
event name:      202201071745
time shift:       2.2283 
half duration:    1.0000 
latitude:        37.7951 
longitude:      101.2468 
depth:           11.8776 
Mrr:       -9.036364e+22 
Mtt:        3.596763e+22 
Mpp:        5.439600e+22 
Mrt:        3.667144e+22 
Mrp:       -2.396510e+23 
Mtp:       -9.005360e+22 
PDE 2022  1 7  17 45 30.125  37.811 101.275  10.0  6.6 6.6 Jinchang China
event name:      202201071745
time shift:       2.2554 
half duration:    3.0000 
latitude:        37.7998 
longitude:      101.2006 
depth:            4.0408 
Mrr:        2.664270e+24 
Mtt:       -2.667275e+24 
Mpp:        3.004721e+21 
Mrt:       -3.414473e+24 
Mrp:       -1.615959e+23 
Mtp:        4.258888e+23 
PDE 2022  1 7  17 45 30.125  37.811 101.275  10.0  6.6 6.6 Jinchang China
event name:      202201071745
time shift:       2.2554 
half duration:    3.0000 
latitude:        37.8033 
longitude:      101.2022 
depth:            7.9592 
Mrr:        8.226313e+21 
Mtt:       -8.620071e+21 
Mpp:        3.937577e+20 
Mrt:       -1.110098e+22 
Mrp:       -2.228344e+21 
Mtp:        7.815760e+20 
PDE 2022  1 7  17 45 30.125  37.811 101.275  10.0  6.6 6.6 Jinchang China
event name:      202201071745
time shift:       2.3107 
half duration:    1.0000 
latitude:        37.7893 
longitude:      101.2683 
depth:           11.8776 
Mrr:       -1.065480e+23 
Mtt:        6.188027e+22 
Mpp:        4.466772e+22 
Mrt:        7.151296e+22 
Mrp:       -1.949936e+23 
Mtp:       -7.916930e+22 
PDE 2022  1 7  17 45 30.125  37.811 101.275  10.0  6.6 6.6 Jinchang China
event name:      202201071745
time shift:       2.4052 
half duration:    3.0000 
latitude:        37.7688 
longitude:      101.3075 
depth:            2.0816 
Mrr:        1.457728e+24 
Mtt:       -1.686365e+24 
Mpp:        2.286367e+23 
Mrt:       -2.197812e+24 
Mrp:       -1.109430e+24 
Mtp:       -8.190215e+22 
PDE 2022  1 7  17 45 30.125  37.811 101.275  10.0  6.6 6.6 Jinchang China
event name:      202201071745
time shift:       2.5107 
half duration:    2.0000 
latitude:        37.7787 
longitude:      101.2637 
depth:            0.1224 
Mrr:        3.185610e+20 
Mtt:       -1.430543e+21 
Mpp:        1.111982e+21 
Mrt:       -2.022455e+21 
Mrp:       -5.019406e+21 
Mtp:       -1.491310e+21 
PDE 2022  1 7  17 45 30.125  37.811 101.275  10.0  6.6 6.6 Jinchang China
event name:      202201071745
time shift:       2.5487 
half duration:    1.0000 
latitude:        37.8010 
longitude:      101.2252 
depth:           11.8776 
Mrr:       -4.835909e+22 
Mtt:        1.209488e+22 
Mpp:        3.626420e+22 
Mrt:        9.237359e+21 
Mrp:       -1.604287e+23 
Mtp:       -5.811784e+22 
PDE 2022  1 7  17 45 30.125  37.811 101.275  10.0  6.6 6.6 Jinchang China
event name:      202201071745
time shift:       2.5636 
half duration:    1.0000 
latitude:        37.8051 
longitude:      101.2029 
depth:            9.9184 
Mrr:        6.225014e+19 
Mtt:       -6.305930e+19 
Mpp:        8.091564e+17 
Mrt:       -8.085153e+19 
Mrp:       -7.099465e+18 
Mtp:        8.925609e+18 
PDE 2022  1 7  17 45 30.125  37.811 101.275  10.0  6.6 6.6 Jinchang China
event name:      202201071745
time shift:       2.6283 
half duration:    1.0000 
latitude:        37.7846 
longitude:      101.2422 
depth:            0.1224 
Mrr:        1.610299e+21 
Mtt:       -2.895401e+21 
Mpp:        1.285102e+21 
Mrt:       -3.927193e+21 
Mrp:       -5.869895e+21 
Mtp:       -1.522984e+21 
PDE 2022  1 7  17 45 30.125  37.811 101.275  10.0  6.6 6.6 Jinchang China
event name:      202201071745
time shift:       2.6283 
half duration:    3.0000 
latitude:        37.7729 
longitude:      101.2852 
depth:            0.1224 
Mrr:        1.401753e+21 
Mtt:       -1.406048e+21 
Mpp:        4.295591e+18 
Mrt:       -1.800399e+21 
Mrp:       -9.723128e+19 
Mtp:        2.203066e+20 
PDE 2022  1 7  17 45 30.125  37.811 101.275  10.0  6.6 6.6 Jinchang China
event name:      202201071745
time shift:       2.7636 
half duration:    3.0000 
latitude:        37.7981 
longitude:      101.1999 
depth:            2.0816 
Mrr:        2.559711e+24 
Mtt:       -2.564381e+24 
Mpp:        4.669340e+21 
Mrt:       -3.283062e+24 
Mrp:       -1.632720e+23 
Mtp:        4.067019e+23 
PDE 2022  1 7  17 45 30.125  37.811 101.275  10.0  6.6 6.6 Jinchang China
event name:      202201071745
time shift:       2.8052 
half duration:    1.0000 
latitude:        37.7758 
longitude:      101.3106 
depth:            9.9184 
Mrr:       -1.160317e+22 
Mtt:       -3.850294e+20 
Mpp:        1.198820e+22 
Mrt:       -2.556749e+21 
Mrp:       -5.327807e+22 
Mtp:       -1.850502e+22 
PDE 2022  1 7  17 45 30.125  37.811 101.275  10.0  6.6 6.6 Jinchang China
event name:      202201071745
time shift:       2.8283 
half duration:    2.0000 
latitude:        37.7834 
longitude:      101.2898 
depth:           11.8776 
Mrr:        1.584866e+21 
Mtt:       -1.777236e+21 
Mpp:        1.923700e+20 
Mrt:       -2.307878e+21 
Mrp:       -9.533681e+20 
Mtp:       -1.106464e+19 
PDE 2022  1 7  17 45 30.125  37.811 101.275  10.0  6.6 6.6 Jinchang China
event name:      202201071745
time shift:       2.8554 
half duration:    3.0000 
latitude:        37.7647 
longitude:      101.3298 
depth:            4.0408 
Mrr:        1.661703e+24 
Mtt:       -1.662850e+24 
Mpp:        1.146114e+21 
Mrt:       -2.128548e+24 
Mrp:       -9.751304e+22 
Mtp:        2.666365e+23 
PDE 2022  1 7  17 45 30.125  37.811 101.275  10.0  6.6 6.6 Jinchang China
event name:      202201071745
time shift:       2.8571 
half duration:    3.0000 
latitude:        37.8074 
longitude:      101.1799 
depth:            6.0000 
Mrr:        4.885764e+23 
Mtt:       -4.909991e+23 
Mpp:        2.422666e+21 
Mrt:       -6.288673e+23 
Mrp:       -3.805234e+22 
Mtp:        7.550323e+22 
PDE 2022  1 7  17 45 30.125  37.811 101.275  10.0  6.6 6.6 Jinchang China
event name:      202201071745
time shift:       2.9425 
half duration:    1.0000 
latitude:        37.8092 
longitude:      101.1806 
depth:            7.9592 
Mrr:       -2.862898e+22 
Mtt:        1.315643e+22 
Mpp:        1.547256e+22 
Mrt:        1.417565e+22 
Mrp:       -6.800441e+22 
Mtp:       -2.608736e+22 
PDE 2022  1 7  17 45 30.125  37.811 101.275  10.0  6.6 6.6 Jinchang China
event name:      202201071745
time shift:       2.9429 
half duration:    2.0000 
latitude:        37.7664 
longitude:      101.3306 
depth:            6.0000 
Mrr:        4.241585e+23 
Mtt:       -4.258210e+23 
Mpp:        1.662503e+21 
Mrt:       -5.453123e+23 
Mrp:       -3.105276e+22 
Mtp:        6.615974e+22 
PDE 2022  1 7  17 45 30.125  37.811 101.275  10.0  6.6 6.6 Jinchang China
event name:      202201071745
time shift:       2.9487 
half duration:    2.0000 
latitude:        37.7905 
longitude:      101.2206 
depth:            0.1224 
Mrr:        1.239968e+21 
Mtt:       -1.574914e+21 
Mpp:        3.349466e+20 
Mrt:       -2.073464e+21 
Mrp:       -1.575509e+21 
Mtp:       -2.645435e+20 
PDE 2022  1 7  17 45 30.125  37.811 101.275  10.0  6.6 6.6 Jinchang China
event name:      202201071745
time shift:       2.9487 
half duration:    2.0000 
latitude:        37.7670 
longitude:      101.3068 
depth:            0.1224 
Mrr:        1.083325e+21 
Mtt:       -1.284872e+21 
Mpp:        2.015464e+20 
Mrt:       -1.679260e+21 
Mrp:       -9.667680e+20 
Mtp:       -1.047528e+20 
PDE 2022  1 7  17 45 30.125  37.811 101.275  10.0  6.6 6.6 Jinchang China
event name:      202201071745
time shift:       2.9636 
half duration:    2.0000 
latitude:        37.7629 
longitude:      101.3291 
depth:            2.0816 
Mrr:        1.659295e+24 
Mtt:       -1.721042e+24 
Mpp:        6.174673e+22 
Mrt:       -2.213464e+24 
Mrp:       -3.699610e+23 
Mtp:        1.821723e+23 
PDE 2022  1 7  17 45 30.125  37.811 101.275  10.0  6.6 6.6 Jinchang China
event name:      202201071745
time shift:       3.0078 
half duration:    2.0000 
latitude:        37.8068 
longitude:      101.2037 
depth:           11.8776 
Mrr:        2.363559e+21 
Mtt:       -9.409640e+21 
Mpp:        7.046081e+21 
Mrt:       -1.325687e+22 
Mrp:       -3.182467e+22 
Mtp:       -9.394006e+21 
PDE 2022  1 7  17 45 30.125  37.811 101.275  10.0  6.6 6.6 Jinchang China
event name:      202201071745
time shift:       3.0554 
half duration:    3.0000 
latitude:        37.7682 
longitude:      101.3314 
depth:            7.9592 
Mrr:       -6.077553e+21 
Mtt:        2.251278e+21 
Mpp:        3.826275e+21 
Mrt:        2.222758e+21 
Mrp:       -1.687281e+22 
Mtp:       -6.289478e+21 
PDE 2022  1 7  17 45 30.125  37.811 101.275  10.0  6.6 6.6 Jinchang China
event name:      202201071745
time shift:       3.1035 
half duration:    2.0000 
latitude:        37.7969 
longitude:      101.2475 
depth:           13.8368 
Mrr:       -1.910197e+21 
Mtt:        9.362828e+20 
Mpp:        9.739139e+20 
Mrt:        1.030715e+21 
Mrp:       -4.274500e+21 
Mtp:       -1.659517e+21 
PDE 2022  1 7  17 45 30.125  37.811 101.275  10.0  6.6 6.6 Jinchang China
event name:      202201071745
time shift:       3.1425 
half duration:    3.0000 
latitude:        37.8057 
longitude:      101.1791 
depth:            4.0408 
Mrr:        1.219682e+24 
Mtt:       -1.220553e+24 
Mpp:        8.705466e+20 
Mrt:       -1.562386e+24 
Mrp:       -7.170590e+22 
Mtp:        1.956692e+23 
PDE 2022  1 7  17 45 30.125  37.811 101.275  10.0  6.6 6.6 Jinchang China
event name:      202201071745
time shift:       3.1561 
half duration:    1.0000 
latitude:        37.8027 
longitude:      101.2260 
depth:           13.8368 
Mrr:       -6.752399e+20 
Mtt:       -9.296911e+20 
Mpp:        1.604931e+21 
Mrt:       -1.466261e+21 
Mrp:       -7.181456e+21 
Mtp:       -2.335629e+21 
PDE 2022  1 7  17 45 30.125  37.811 101.275  10.0  6.6 6.6 Jinchang China
event name:      202201071745
time shift:       3.1849 
half duration:    1.0000 
latitude:        37.8109 
longitude:      101.1814 
depth:            9.9184 
Mrr:       -2.002779e+22 
Mtt:       -7.856478e+20 
Mpp:        2.081344e+22 
Mrt:       -4.588905e+21 
Mrp:       -9.250580e+22 
Mtp:       -3.210877e+22 
PDE 2022  1 7  17 45 30.125  37.811 101.275  10.0  6.6 6.6 Jinchang China
event name:      202201071745
time shift:       3.2143 
half duration:    2.0000 
latitude:        37.7910 
longitude:      101.2691 
depth:           13.8368 
Mrr:       -6.410407e+20 
Mtt:        1.252931e+20 
Mpp:        5.157475e+20 
Mrt:        7.157480e+19 
Mrp:       -2.284205e+21 
Mtp:       -8.190075e+20 
PDE 2022  1 7  17 45 30.125  37.811 101.275  10.0  6.6 6.6 Jinchang China
event name:      202201071745
time shift:       3.4078 
half duration:    1.0000 
latitude:        37.7612 
longitude:      101.3283 
depth:            0.1224 
Mrr:       -3.906500e+21 
Mtt:        1.782664e+21 
Mpp:        2.123836e+21 
Mrt:        1.916058e+21 
Mrp:       -9.335898e+21 
Mtp:       -3.577121e+21 
PDE 2022  1 7  17 45 30.125  37.811 101.275  10.0  6.6 6.6 Jinchang China
event name:      202201071745
time shift:       3.4078 
half duration:    1.0000 
latitude:        37.7963 
longitude:      101.1991 
depth:            0.1224 
Mrr:       -8.219993e+20 
Mtt:        2.840697e+20 
Mpp:        5.379296e+20 
Mrt:        2.709807e+20 
Mrp:       -2.373922e+21 
Mtp:       -8.789919e+20 
PDE 2022  1 7  17 45 30.125  37.811 101.275  10.0  6.6 6.6 Jinchang China
event name:      202201071745
time shift:       3.5372 
half duration:    1.0000 
latitude:        37.8086 
longitude:      101.2045 
depth:           13.8368 
Mrr:       -6.700764e+21 
Mtt:        3.032782e+21 
Mpp:        3.667982e+21 
Mrt:        3.250291e+21 
Mrp:       -1.612617e+22 
Mtp:       -6.170464e+21 
PDE 2022  1 7  17 45 30.125  37.811 101.275  10.0  6.6 6.6 Jinchang China
event name:      202201071745
time shift:       3.5487 
half duration:    1.0000 
latitude:        37.7775 
longitude:      101.3114 
depth:           11.8776 
Mrr:        3.590634e+21 
Mtt:       -5.555854e+21 
Mpp:        1.965220e+21 
Mrt:       -7.449509e+21 
Mrp:       -9.039135e+21 
Mtp:       -2.146900e+21 
PDE 2022  1 7  17 45 30.125  37.811 101.275  10.0  6.6 6.6 Jinchang China
event name:      202201071745
time shift:       3.5522 
half duration:    1.0000 
latitude:        37.8127 
longitude:      101.1822 
depth:           11.8776 
Mrr:        2.522265e+20 
Mtt:       -2.579856e+20 
Mpp:        5.759093e+18 
Mrt:       -3.311980e+20 
Mrp:       -3.992323e+19 
Mtp:        3.272356e+19 
PDE 2022  1 7  17 45 30.125  37.811 101.275  10.0  6.6 6.6 Jinchang China
event name:      202201071745
time shift:       3.5636 
half duration:    3.0000 
latitude:        37.7699 
longitude:      101.3321 
depth:            9.9184 
Mrr:        4.257325e+21 
Mtt:       -4.501996e+21 
Mpp:        2.446708e+20 
Mrt:       -5.804415e+21 
Mrp:       -1.337153e+21 
Mtp:        3.477541e+20 
PDE 2022  1 7  17 45 30.125  37.811 101.275  10.0  6.6 6.6 Jinchang China
event name:      202201071745
time shift:       3.5714 
half duration:    1.0000 
latitude:        37.8133 
longitude:      101.1583 
depth:            6.0000 
Mrr:        1.046561e+22 
Mtt:       -2.308659e+22 
Mpp:        1.262098e+22 
Mrt:       -3.172237e+22 
Mrp:       -5.735090e+22 
Mtp:       -1.582065e+22 
PDE 2022  1 7  17 45 30.125  37.811 101.275  10.0  6.6 6.6 Jinchang China
event name:      202201071745
time shift:       3.5849 
half duration:    3.0000 
latitude:        37.8039 
longitude:      101.1783 
depth:            2.0816 
Mrr:        1.277482e+24 
Mtt:       -1.278604e+24 
Mpp:        1.122273e+21 
Mrt:       -1.636732e+24 
Mrp:       -7.605071e+22 
Mtp:        2.046499e+23 
PDE 2022  1 7  17 45 30.125  37.811 101.275  10.0  6.6 6.6 Jinchang China
event name:      202201071745
time shift:       3.5849 
half duration:    1.0000 
latitude:        37.7571 
longitude:      101.3506 
depth:            2.0816 
Mrr:        1.618413e+24 
Mtt:       -1.619029e+24 
Mpp:        6.160553e+20 
Mrt:       -2.072369e+24 
Mrp:       -9.272277e+22 
Mtp:        2.603841e+23 
PDE 2022  1 7  17 45 30.125  37.811 101.275  10.0  6.6 6.6 Jinchang China
event name:      202201071745
time shift:       3.6401 
half duration:    1.0000 
latitude:        37.8151 
longitude:      101.1591 
depth:            7.9592 
Mrr:       -2.475163e+22 
Mtt:        1.294496e+22 
Mpp:        1.180667e+22 
Mrt:        1.453611e+22 
Mrp:       -5.173075e+22 
Mtp:       -2.037555e+22 
PDE 2022  1 7  17 45 30.125  37.811 101.275  10.0  6.6 6.6 Jinchang China
event name:      202201071745
time shift:       3.7035 
half duration:    2.0000 
latitude:        37.7851 
longitude:      101.2906 
depth:           13.8368 
Mrr:        1.557710e+22 
Mtt:       -2.005189e+22 
Mpp:        4.474796e+21 
Mrt:       -2.643565e+22 
Mrp:       -2.099343e+22 
Mtp:       -3.693798e+21 
PDE 2022  1 7  17 45 30.125  37.811 101.275  10.0  6.6 6.6 Jinchang China
event name:      202201071745
time shift:       3.7425 
half duration:    1.0000 
latitude:        37.7588 
longitude:      101.3514 
depth:            4.0408 
Mrr:        1.026318e+24 
Mtt:       -1.026360e+24 
Mpp:        4.130774e+19 
Mrt:       -1.313688e+24 
Mrp:       -5.722879e+22 
Mtp:        1.656075e+23 
PDE 2022  1 7  17 45 30.125  37.811 101.275  10.0  6.6 6.6 Jinchang China
event name:      202201071745
time shift:       3.7522 
half duration:    3.0000 
latitude:        37.7553 
longitude:      101.3498 
depth:            0.1224 
Mrr:        7.705098e+20 
Mtt:       -7.981897e+20 
Mpp:        2.767986e+19 
Mrt:       -1.026402e+21 
Mrp:       -1.673292e+20 
Mtp:        8.597090e+19 
PDE 2022  1 7  17 45 30.125  37.811 101.275  10.0  6.6 6.6 Jinchang China
event name:      202201071745
time shift:       3.8386 
half duration:    1.0000 
latitude:        37.8168 
longitude:      101.1599 
depth:            9.9184 
Mrr:       -1.899998e+21 
Mtt:       -3.461074e+21 
Mpp:        5.361072e+21 
Mrt:       -5.352955e+21 
Mrp:       -2.400852e+22 
Mtp:       -7.744483e+21 
PDE 2022  1 7  17 45 30.125  37.811 101.275  10.0  6.6 6.6 Jinchang China
event name:      202201071745
time shift:       3.8571 
half duration:    3.0000 
latitude:        37.7606 
longitude:      101.3521 
depth:            6.0000 
Mrr:        6.550631e+20 
Mtt:       -9.797270e+20 
Mpp:        3.246639e+20 
Mrt:       -1.309889e+21 
Mrp:       -1.496748e+21 
Mtp:       -3.446910e+20 
PDE 2022  1 7  17 45 30.125  37.811 101.275  10.0  6.6 6.6 Jinchang China
event name:      202201071745
time shift:       3.9425 
half duration:    1.0000 
latitude:        37.7623 
longitude:      101.3529 
depth:            7.9592 
Mrr:       -5.310776e+20 
Mtt:        2.418618e+20 
Mpp:        2.892158e+20 
Mrt:        2.597766e+20 
Mrp:       -1.271376e+21 
Mtp:       -4.869742e+20 
PDE 2022  1 7  17 45 30.125  37.811 101.275  10.0  6.6 6.6 Jinchang China
event name:      202201071745
time shift:       3.9896 
half duration:    1.0000 
latitude:        37.7986 
longitude:      101.2483 
depth:           15.7960 
Mrr:        7.615328e+19 
Mtt:       -8.381386e+20 
Mpp:        7.619853e+20 
Mrt:       -1.203955e+21 
Mrp:       -3.431646e+21 
Mtp:       -1.044863e+21 
PDE 2022  1 7  17 45 30.125  37.811 101.275  10.0  6.6 6.6 Jinchang China
event name:      202201071745
time shift:       3.9969 
half duration:    1.0000 
latitude:        37.8045 
longitude:      101.2268 
depth:           15.7960 
Mrr:        1.640798e+22 
Mtt:       -1.929320e+22 
Mpp:        2.885219e+21 
Mrt:       -2.519090e+22 
Mrp:       -1.388969e+22 
Mtp:       -1.354346e+21 
PDE 2022  1 7  17 45 30.125  37.811 101.275  10.0  6.6 6.6 Jinchang China
event name:      202201071745
time shift:       4.0104 
half duration:    1.0000 
latitude:        37.8144 
longitude:      101.1829 
depth:           13.8368 
Mrr:       -6.094294e+21 
Mtt:        2.206818e+21 
Mpp:        3.887476e+21 
Mrt:        2.155315e+21 
Mrp:       -1.714716e+22 
Mtp:       -6.377090e+21 
PDE 2022  1 7  17 45 30.125  37.811 101.275  10.0  6.6 6.6 Jinchang China
event name:      202201071745
time shift:       4.0401 
half duration:    2.0000 
latitude:        37.8115 
longitude:      101.1576 
depth:            4.0408 
Mrr:        3.836279e+23 
Mtt:       -3.853236e+23 
Mpp:        1.695624e+21 
Mrt:       -4.934836e+23 
Mrp:       -2.894905e+22 
Mtp:        5.957147e+22 
PDE 2022  1 7  17 45 30.125  37.811 101.275  10.0  6.6 6.6 Jinchang China
event name:      202201071745
time shift:       4.1485 
half duration:    1.0000 
latitude:        37.8186 
longitude:      101.1606 
depth:           11.8776 
Mrr:       -5.961531e+20 
Mtt:       -5.496955e+20 
Mpp:        1.145849e+21 
Mrt:       -9.008518e+20 
Mrp:       -5.120897e+21 
Mtp:       -1.685945e+21 
PDE 2022  1 7  17 45 30.125  37.811 101.275  10.0  6.6 6.6 Jinchang China
event name:      202201071745
time shift:       4.1522 
half duration:    3.0000 
latitude:        37.8022 
longitude:      101.1776 
depth:            0.1224 
Mrr:       -1.278101e+20 
Mtt:        6.323869e+19 
Mpp:        6.457139e+19 
Mrt:        6.982497e+19 
Mrp:       -2.833387e+20 
Mtp:       -1.102151e+20 
PDE 2022  1 7  17 45 30.125  37.811 101.275  10.0  6.6 6.6 Jinchang China
event name:      202201071745
time shift:       4.1849 
half duration:    2.0000 
latitude:        37.7641 
longitude:      101.3537 
depth:            9.9184 
Mrr:        1.046570e+21 
Mtt:       -1.193057e+21 
Mpp:        1.464872e+20 
Mrt:       -1.552263e+21 
Mrp:       -7.170685e+20 
Mtp:       -3.429822e+19 
PDE 2022  1 7  17 45 30.125  37.811 101.275  10.0  6.6 6.6 Jinchang China
event name:      202201071745
time shift:       4.2078 
half duration:    1.0000 
latitude:        37.7717 
longitude:      101.3329 
depth:           11.8776 
Mrr:        1.019454e+22 
Mtt:       -1.140567e+22 
Mpp:        1.211133e+21 
Mrt:       -1.480711e+22 
Mrp:       -6.014297e+21 
Mtp:       -3.472240e+19 
PDE 2022  1 7  17 45 30.125  37.811 101.275  10.0  6.6 6.6 Jinchang China
event name:      202201071745
time shift:       4.2386 
half duration:    1.0000 
latitude:        37.7512 
longitude:      101.3721 
depth:            2.0816 
Mrr:        1.620642e+24 
Mtt:       -1.621565e+24 
Mpp:        9.230185e+20 
Mrt:       -2.075667e+24 
Mrp:       -9.422735e+22 
Mtp:        2.603180e+23 
PDE 2022  1 7  17 45 30.125  37.811 101.275  10.0  6.6 6.6 Jinchang China
event name:      202201071745
time shift:       4.3179 
half duration:    2.0000 
latitude:        37.7928 
longitude:      101.2698 
depth:           15.7960 
Mrr:        9.859562e+20 
Mtt:       -2.532541e+21 
Mpp:        1.546585e+21 
Mrt:       -3.507771e+21 